          10
 acetone.xyz Generated by the PROGRESS library
C     -1.29000    -0.61400     0.00000
C      0.00000     0.18100    -0.00000
H     -1.33200    -1.26800     0.87800
H     -1.33400    -1.26400    -0.88100
H     -2.14700     0.06100     0.00300
C      1.29000    -0.61400    -0.00000
H      1.33400    -1.26400     0.88100
H      2.14700     0.06100    -0.00200
H      1.33200    -1.26800    -0.87800
O      0.00000     1.40300     0.00000
 #lattice vectors
             4.29400             0.00000             0.00000
             0.00000             2.67100             0.00000
             0.00000             0.00000             1.76200
